Version 4
SHEET 1 1488 680
WIRE 384 -48 288 -48
WIRE 480 -48 384 -48
WIRE 576 -48 480 -48
WIRE 688 -48 576 -48
WIRE 832 -48 784 -48
WIRE 896 -48 832 -48
WIRE 1152 -48 896 -48
WIRE 1392 -48 1152 -48
WIRE 288 -16 288 -48
WIRE 384 -16 384 -48
WIRE 480 -16 480 -48
WIRE 768 16 768 0
WIRE 1392 16 1392 -48
WIRE 576 32 576 -48
WIRE -32 96 -80 96
WIRE 288 96 288 48
WIRE 288 96 48 96
WIRE 768 96 736 96
WIRE 1152 96 1152 -48
WIRE 896 112 896 -48
WIRE 1392 128 1392 96
WIRE 736 144 736 96
WIRE -80 160 -80 96
WIRE 48 160 -80 160
WIRE 384 160 384 48
WIRE 384 160 128 160
WIRE 576 160 576 112
WIRE -80 224 -80 160
WIRE -32 224 -80 224
WIRE 480 224 480 48
WIRE 480 224 48 224
WIRE 288 272 288 96
WIRE 384 272 384 160
WIRE 480 272 480 224
WIRE 1392 272 1392 208
WIRE 736 304 736 224
WIRE 832 304 832 -48
WIRE 832 304 736 304
WIRE 288 400 288 336
WIRE 384 400 384 336
WIRE 384 400 288 400
WIRE 400 400 384 400
WIRE 480 400 480 336
WIRE 480 400 400 400
WIRE 576 400 576 224
WIRE 576 400 480 400
WIRE 896 400 896 176
WIRE 896 400 576 400
WIRE 1152 400 1152 160
WIRE 1152 400 896 400
WIRE 1392 400 1392 352
WIRE 1392 400 1152 400
WIRE 400 448 400 400
FLAG 400 448 0
SYMBOL voltage 64 96 R90
WINDOW 0 -32 56 VBottom 2
WINDOW 3 32 56 VTop 2
WINDOW 123 0 0 Left 0
WINDOW 39 0 0 Left 0
SYMATTR InstName V1
SYMATTR Value SINE(0 325 50 0 0 120)
SYMBOL voltage 144 160 R90
WINDOW 0 -32 56 VBottom 2
WINDOW 3 32 56 VTop 2
WINDOW 123 0 0 Left 0
WINDOW 39 0 0 Left 0
SYMATTR InstName V2
SYMATTR Value SINE(0 325 50 0 0 -120)
SYMBOL voltage 64 224 R90
WINDOW 0 -32 56 VBottom 2
WINDOW 3 32 56 VTop 2
WINDOW 123 0 0 Left 0
WINDOW 39 0 0 Left 0
SYMATTR InstName V3
SYMATTR Value SINE(0 325 50 -240)
SYMBOL diode 304 48 R180
WINDOW 0 24 64 Left 2
WINDOW 3 24 0 Left 2
SYMATTR InstName D1
SYMBOL diode 304 336 R180
WINDOW 0 24 64 Left 2
WINDOW 3 24 0 Left 2
SYMATTR InstName D2
SYMBOL diode 400 48 R180
WINDOW 0 24 64 Left 2
WINDOW 3 24 0 Left 2
SYMATTR InstName D3
SYMBOL diode 400 336 R180
WINDOW 0 24 64 Left 2
WINDOW 3 24 0 Left 2
SYMATTR InstName D4
SYMBOL diode 496 48 R180
WINDOW 0 24 64 Left 2
WINDOW 3 24 0 Left 2
SYMATTR InstName D5
SYMBOL diode 496 336 R180
WINDOW 0 24 64 Left 2
WINDOW 3 24 0 Left 2
SYMATTR InstName D6
SYMBOL cap 560 160 R0
SYMATTR InstName C1
SYMATTR Value 100mF
SYMBOL diode 912 176 R180
WINDOW 0 24 64 Left 2
WINDOW 3 24 0 Left 2
SYMATTR InstName D7
SYMBOL cap 1136 96 R0
SYMATTR InstName C2
SYMATTR Value 100µ
SYMBOL res 1376 0 R0
SYMATTR InstName R1
SYMATTR Value 0.8
SYMBOL voltage 736 128 R0
WINDOW 123 0 0 Left 0
WINDOW 39 0 0 Left 0
SYMATTR InstName V4
SYMATTR Value PULSE(0 25 0 0.1m 0.1m 0.00025 0.001)
SYMBOL nmos 688 0 R270
SYMATTR InstName M1
SYMATTR Value R6020PNJ
SYMBOL res 560 16 R0
SYMATTR InstName R3
SYMATTR Value 0.001
SYMBOL res 752 0 R0
SYMATTR InstName R2
SYMATTR Value 1k
SYMBOL ind 1376 112 R0
SYMATTR InstName L2
SYMATTR Value 0.111
SYMBOL voltage 1392 256 R0
WINDOW 123 0 0 Left 0
WINDOW 39 0 0 Left 0
SYMATTR InstName V5
SYMATTR Value 220
TEXT -136 408 Left 2 !.tran 0.40 uic
